*Heading
** Job name: Job-hole-pyfem Model name: Model-1
** Generated by: Abaqus/CAE 2020
*Preprint, echo=NO, model=NO, history=NO, contact=NO
**
** PARTS
**
*Part, name=Part-1
*Node
      1,         -50.,          50.
      2,  -14.1421356,   14.1421356
      3,   14.1421356,   14.1421356
      4,          50.,          50.
      5,   14.1421356,  -14.1421356
      6,          50.,         -50.
      7,          20.,           0.
      8,         -50.,         -50.
      9,  -14.1421356,  -14.1421356
     10,  -46.4142151,   46.4142151
     11,  -42.8284264,   42.8284264
     12,  -39.2426414,   39.2426414
     13,  -35.6568527,   35.6568527
     14,  -32.0710678,   32.0710678
     15,   -28.485281,    28.485281
     16,  -24.8994942,   24.8994942
     17,  -21.3137093,   21.3137093
     18,  -17.7279224,   17.7279224
     19,  -11.7557049,   16.1803398
     20,  -9.07981014,   17.8201313
** ... 420 like lines cut
*Element, type=CPS4R
  1,   1,  10, 117,  45
  2,  10,  11, 118, 117
  3,  11,  12, 119, 118
  4,  12,  13, 120, 119
  5,  13,  14, 121, 120
  6,  14,  15, 122, 121
  7,  15,  16, 123, 122
  8,  16,  17, 124, 123
  9,  17,  18, 125, 124
 10,  18,   2,  19, 125
 11,  45, 117, 126,  44
 12, 117, 118, 127, 126
 13, 118, 119, 128, 127
 14, 119, 120, 129, 128
 15, 120, 121, 130, 129
 16, 121, 122, 131, 130
 17, 122, 123, 132, 131
 18, 123, 124, 133, 132
 19, 124, 125, 134, 133
 20, 125,  19,  20, 134
** ... 380 like lines cut
*Nset, nset=Set-1, generate
   1,  440,    1
*Elset, elset=Set-1, generate
   1,  400,    1
** Section: Section-1
*Solid Section, elset=Set-1, material=Material-1
,
*End Part
**  
**
** ASSEMBLY
**
*Assembly, name=Assembly
**  
*Instance, name=Part-1-1, part=Part-1
*End Instance
**  
*Nset, nset=Set-1, instance=Part-1-1
  1,  8, 72, 73, 74, 75, 76, 77, 78, 79, 80
*Elset, elset=Set-1, instance=Part-1-1, generate
 210,  300,   10
*Nset, nset=Set-2, instance=Part-1-1
  4,  6, 55, 56, 57, 58, 59, 60, 61, 62, 63
*Elset, elset=Set-2, instance=Part-1-1, generate
 110,  200,   10
*End Assembly
** 
** MATERIALS
** 
*Material, name=Material-1
*Elastic
 2.1e+09, 0.3
** ----------------------------------------------------------------
** 
** STEP: Step-1
** 
*Step, name=Step-1, nlgeom=NO
*Static
1., 1., 1e-05, 1.
** 
** BOUNDARY CONDITIONS
** 
** Name: BC-1 Type: Symmetry/Antisymmetry/Encastre
*Boundary
Set-1, ENCASTRE
** Name: BC-2 Type: Displacement/Rotation
*Boundary
Set-2, 1, 1, 5.
** 
** OUTPUT REQUESTS
** 
*Restart, write, frequency=0
** 
** FIELD OUTPUT: F-Output-1
** 
*Output, field, variable=PRESELECT
** 
** HISTORY OUTPUT: H-Output-1
** 
*Output, history, variable=PRESELECT
*End Step
